.tran 0 1s 0 0.1s
R1 0 N001 10
V1 N001 0 10
.end
