.tran 0 1s 0 0.01s
R1 0 N001 10
L1 N001 N002 1
R2 N002 N003 10
V1 N003 0 10
.end
