L1 N002 0 10u
R9 N002 0 10k
R1 N002 N001 10k
V1 N001 N003 SINE(0 1 47.746)
R2 N003 0 1
.tran 0 0.12s 0 0.001s
.end
