* This is a test SPICE file.
R1 N003 N002 1k
R2 N001 0 1k
V1 N003 0 SINE(10 1 10k)
L1 N002 N001 10
.tran 0 0.01s 0 0.0001s
.end
