* This is a test SPICE file.
.tran 0 10s 0 1s
R1 0 N001 10
R5 N001 N002 10
R2 N002 N003 10
V1 N003 N004 SINE(10 1 1)
R3 N004 0 20
.end
