* This is a test SPICE file.
.tran 0 10s 0 1s
V1 N001 0 5
R1 N001 N002 10
R4 N001 N002 10
R2 N002 N003 15
R3 N004 0 20
R5 N004 0 10
V2 N003 N004 1
.end
