* This is a test SPICE file.
.tran 0 10s 0 1s
R1 0 N001 10
R2 N001 N002 15
R3 N003 0 20
V2 N002 N003 10
.end
