* This is a test SPICE file.
.tran 0 5s 0 1ms
R1 0 N001 10
R2 N001 N002 10
V2 N002 N003 SINE(10 1 1)
R3 N003 0 20
.end
