* This is a test SPICE file.
.tran 0 5s 0 0.1s
R1 0 N001 10
V2 N001 0 10
.end
