.tran 0 1s 0 0.0001s
R1 N001 0 10
R2 N003 N002 10
V1 N003 0 SINE(10 5 20)
L1 N002 N001 5
R3 N004 0 10
R4 N003 N005 10
C1 N005 N004 3
.end

