* This is a test SPICE file.
.tran 0 5s 0 1s
R1 0 N001 10
C2 N001 N002 10n
V2 N002 N003 10
R3 N003 0 20
.end
